[TITLE]
L-TOWN v1.2
L-TOWN (v1.2) was developed by KIOS Research and Innovation Center of Excellence for the BattLeDIM 2020 competition

[JUNCTIONS]
;ID              	Elev        	Demand      	Pattern         
 n1              	73.2105     	0.000000    	P-Residential   	;AMR & PRESSURE SENSOR
 n2              	73.8737     	0.163289    	P-Res-39        	;AMR
 n3              	73.1782     	0.207940    	P-Res-28        	;AMR
 n4              	68.2608     	0.000000    	P-Residential   	;AMR & PRESSURE SENSOR
 n5              	65.5695     	0.240492    	P-Res-50        	;
 n6              	70.9095     	0.270173    	P-Res-29        	;AMR
 n7              	75.9175     	0.401189    	P-Res-34        	;AMR
 n8              	64.4833     	0.316391    	P-Res-37        	;AMR
 n9              	69.2626     	0.433880    	P-Res-27        	;AMR
 n10             	74.3469     	0.084897    	P-Res-3         	;AMR
 n11             	63.0588     	0.510632    	P-Res-46        	;AMR
 n12             	68.2274     	0.053655    	P-Res-42        	;
 n13             	61.9901     	0.212606    	P-Res-35        	;AMR
 n14             	68.5805     	0.017585    	P-Res-23        	;
 n15             	70.9492     	0.209477    	P-Res-35        	;
 n16             	68.7986     	0.086930    	P-Res-14        	;AMR
 n17             	60.5935     	0.409368    	P-Res-29        	;AMR
 n18             	67.1420     	0.067285    	P-Res-42        	;AMR
 n19             	73.3626     	0.120873    	P-Res-49        	;AMR
 n20             	65.9549     	0.134341    	P-Res-24        	;AMR
 n21             	59.6849     	0.055446    	P-Res-46        	;AMR
 n22             	76.1173     	0.161154    	P-Res-22        	;AMR
 n23             	64.2052     	0.026564    	P-Res-33        	;AMR
 n24             	67.8217     	0.046334    	P-Res-40        	;AMR
 n25             	58.9717     	0.000000    	P-Residential   	;AMR
 n26             	61.6305     	0.004876    	P-Res-31        	;AMR
 n27             	65.7763     	0.143682    	P-Res-9         	;AMR
 n28             	61.4047     	0.000000    	P-Residential   	;AMR
 n29             	71.5429     	0.049595    	P-Res-33        	;AMR
 n30             	75.3299     	0.288707    	P-Res-28        	;AMR
 n31             	65.0059     	0.127181    	P-Res-18        	;AMR & PRESSURE SENSOR
 n32             	71.1590     	0.079463    	P-Res-40        	;AMR
 n33             	60.5902     	0.002663    	P-Res-15        	;AMR
 n34             	65.8482     	0.102941    	P-Res-16        	;AMR
 n35             	59.6258     	0.000000    	P-Residential   	;AMR
 n36             	70.1959     	0.268948    	P-Res-18        	;AMR
 n37             	63.9172     	0.084017    	P-Res-39        	;
 n38             	58.5794     	0.199139    	P-Res-2         	;
 n39             	62.9791     	0.015294    	P-Res-49        	;AMR
 n40             	60.2093     	0.330584    	P-Res-13        	;AMR
 n41             	69.2961     	0.155279    	P-Res-7         	;AMR
 n42             	61.0635     	0.231443    	P-Res-7         	;AMR
 n43             	61.8585     	0.123022    	P-Res-4         	;AMR
 n44             	66.1177     	0.036312    	P-Res-39        	;AMR
 n45             	62.5989     	0.275106    	P-Res-24        	;AMR
 n46             	38.8781     	0.075509    	P-Res-3         	;
 n47             	38.7028     	0.153576    	P-Res-9         	;
 n48             	40.1135     	0.216585    	P-Res-2         	;
 n49             	34.8665     	0.104250    	P-Res-13        	;
 n50             	44.7174     	0.397441    	P-Res-31        	;
 n51             	29.8508     	0.302178    	P-Res-21        	;
 n52             	33.2106     	0.047380    	P-Res-10        	;
 n53             	29.1285     	0.279379    	P-Res-31        	;
 n54             	36.6718     	0.093021    	P-Res-4         	;PRESSURE SENSOR
 n55             	43.7044     	0.277658    	P-Res-5         	;
 n56             	32.7019     	0.327183    	P-Res-12        	;
 n57             	34.5788     	0.070844    	P-Res-18        	;
 n58             	30.1017     	0.160955    	P-Res-24        	;
 n59             	40.5440     	0.129795    	P-Res-37        	;
 n60             	36.5477     	0.086097    	P-Res-39        	;
 n61             	36.5714     	0.026912    	P-Res-15        	;
 n62             	35.9600     	0.077184    	P-Res-44        	;
 n63             	37.0071     	0.167786    	P-Res-12        	;
 n64             	34.9234     	0.161140    	P-Res-43        	;
 n65             	36.2244     	0.045418    	P-Res-47        	;
 n66             	34.2760     	0.072217    	P-Res-21        	;
 n67             	32.5016     	0.398102    	P-Res-31        	;
 n68             	41.0943     	0.174243    	P-Res-31        	;
 n69             	27.7774     	0.395582    	P-Res-2         	;
 n70             	29.8554     	0.186972    	P-Res-27        	;
 n71             	30.0823     	0.220564    	P-Res-11        	;
 n72             	34.4673     	0.020531    	P-Res-8         	;
 n73             	33.0899     	0.030513    	P-Res-30        	;
 n74             	32.3582     	0.044726    	P-Res-29        	;
 n75             	40.1001     	0.025974    	P-Res-3         	;
 n76             	30.5603     	0.098354    	P-Res-16        	;
 n77             	33.9737     	0.031353    	P-Res-50        	;
 n78             	29.2383     	0.091289    	P-Res-47        	;
 n79             	32.7267     	0.178357    	P-Res-35        	;
 n80             	27.7113     	0.267795    	P-Res-6         	;
 n81             	31.0269     	0.185335    	P-Res-17        	;
 n82             	39.6884     	0.185703    	P-Res-10        	;
 n83             	35.7824     	0.150484    	P-Res-24        	;
 n84             	28.8092     	0.154823    	P-Res-1         	;
 n85             	38.6811     	0.001156    	P-Res-1         	;
 n86             	38.1149     	0.183235    	P-Res-34        	;
 n87             	35.2466     	0.006049    	P-Res-32        	;
 n88             	34.2301     	0.083275    	P-Res-45        	;
 n89             	31.7913     	0.016510    	P-Res-41        	;
 n90             	36.3955     	0.105043    	P-Res-1         	;
 n91             	33.0649     	0.013084    	P-Res-33        	;
 n92             	33.1049     	0.015769    	P-Res-31        	;
 n93             	29.3998     	0.152541    	P-Res-32        	;
 n94             	27.5188     	0.489427    	P-Res-42        	;
 n95             	25.4416     	0.000000    	P-Residential   	;
 n96             	24.1924     	0.145364    	P-Res-28        	;
 n97             	27.2125     	0.404756    	P-Res-49        	;
 n98             	25.5648     	0.114224    	P-Res-48        	;
 n99             	23.3478     	0.164357    	P-Res-34        	;
 n100            	25.0658     	0.393391    	P-Res-11        	;
 n101            	24.1570     	0.114075    	P-Res-49        	;
 n102            	23.6941     	0.099648    	P-Res-13        	;
 n103            	24.3635     	0.082866    	P-Res-22        	;
 n104            	20.9592     	0.000000    	P-Residential   	;
 n105            	24.0220     	0.001281    	P-Res-6         	;PRESSURE SENSOR
 n106            	23.5008     	0.101882    	P-Res-9         	;
 n107            	23.5410     	0.000668    	P-Res-8         	;
 n108            	19.8166     	0.000000    	P-Residential   	;
 n109            	23.4984     	0.000608    	P-Res-22        	;
 n110            	23.8384     	0.029218    	P-Res-40        	;
 n111            	25.0000     	0.359959    	P-Res-6         	;
 n112            	23.5656     	0.109378    	P-Res-19        	;
 n113            	23.6071     	0.119816    	P-Res-49        	;
 n114            	20.4764     	0.084342    	P-Res-19        	;PRESSURE SENSOR
 n115            	23.8321     	0.006963    	P-Res-25        	;
 n116            	20.9110     	0.207155    	P-Res-28        	;
 n117            	26.9614     	0.275556    	P-Res-17        	;
 n118            	19.0993     	0.000000    	P-Residential   	;
 n119            	20.0895     	0.254713    	P-Res-3         	;
 n120            	22.6201     	0.079683    	P-Res-23        	;
 n121            	19.3967     	0.000259    	P-Res-21        	;
 n122            	22.4946     	0.092029    	P-Res-32        	;
 n123            	21.5338     	0.123723    	P-Res-20        	;
 n124            	22.6501     	0.012296    	P-Res-29        	;
 n125            	20.5899     	0.049336    	P-Res-6         	;
 n126            	19.1670     	0.233402    	P-Res-33        	;
 n127            	19.1187     	0.005791    	P-Res-27        	;
 n128            	22.0969     	0.112048    	P-Res-47        	;
 n129            	25.9010     	0.135363    	P-Res-31        	;
 n130            	22.1732     	0.187969    	P-Res-2         	;
 n131            	19.5520     	0.118621    	P-Res-32        	;
 n132            	20.3762     	0.122297    	P-Res-32        	;
 n133            	22.5783     	0.295873    	P-Res-37        	;
 n134            	19.2113     	0.009306    	P-Res-8         	;
 n135            	19.1205     	0.123920    	P-Res-21        	;
 n136            	20.3013     	0.327744    	P-Res-8         	;
 n137            	19.6856     	0.033863    	P-Res-16        	;
 n138            	20.8380     	0.027056    	P-Res-35        	;
 n139            	19.6632     	0.000000    	P-Residential   	;
 n140            	27.3504     	0.117452    	P-Res-3         	;
 n141            	23.1252     	0.228654    	P-Res-16        	;
 n142            	19.6239     	0.042958    	P-Res-6         	;
 n143            	20.8754     	0.112293    	P-Res-49        	;
 n144            	26.9472     	0.341290    	P-Res-43        	;
 n145            	22.1344     	0.138046    	P-Res-50        	;
 n146            	21.8276     	0.181496    	P-Res-19        	;
 n147            	19.9725     	0.148391    	P-Res-5         	;
 n148            	20.1477     	0.076357    	P-Res-44        	;
 n149            	20.9496     	0.055161    	P-Res-48        	;
 n150            	22.6861     	0.015872    	P-Res-13        	;
 n151            	19.8447     	0.032073    	P-Res-5         	;
 n152            	19.1334     	0.000000    	P-Residential   	;
 n153            	22.6394     	0.233294    	P-Res-1         	;
 n154            	20.3582     	0.154270    	P-Res-25        	;
 n155            	26.3852     	0.090030    	P-Res-33        	;
 n156            	20.0619     	0.017344    	P-Res-19        	;
 n157            	20.4464     	0.029016    	P-Res-10        	;
 n158            	19.7472     	0.000000    	P-Residential   	;
 n159            	27.0053     	0.155913    	P-Res-33        	;
 n160            	20.2078     	0.226777    	P-Res-19        	;
 n161            	21.3197     	0.000000    	P-Residential   	;
 n162            	26.9729     	0.021460    	P-Res-22        	;
 n163            	21.6096     	0.049695    	P-Res-39        	;PRESSURE SENSOR
 n164            	20.2745     	0.172243    	P-Res-32        	;
 n165            	19.8081     	0.353820    	P-Res-5         	;
 n166            	20.2750     	0.254662    	P-Res-47        	;
 n167            	22.5413     	0.139541    	P-Res-14        	;
 n168            	20.4384     	0.049230    	P-Res-43        	;
 n169            	27.0181     	0.063568    	P-Res-43        	;
 n170            	23.2339     	0.566096    	P-Res-45        	;
 n171            	20.6067     	0.225472    	P-Res-13        	;
 n172            	19.1601     	0.052144    	P-Res-49        	;
 n173            	21.0596     	0.169068    	P-Res-25        	;
 n174            	21.4292     	0.000000    	P-Residential   	;
 n175            	19.3536     	0.106232    	P-Res-25        	;
 n176            	27.7038     	0.109775    	P-Res-42        	;
 n177            	19.3479     	0.162367    	P-Res-16        	;
 n178            	21.9026     	0.035120    	P-Res-34        	;
 n179            	19.4895     	0.000000    	P-Residential   	;
 n180            	22.7778     	0.020129    	P-Res-17        	;
 n181            	23.7049     	0.129859    	P-Res-2         	;
 n182            	25.0850     	0.162596    	P-Res-50        	;
 n183            	19.3859     	0.143957    	P-Res-25        	;
 n184            	27.2441     	0.050626    	P-Res-42        	;
 n185            	19.0789     	0.154039    	P-Res-23        	;
 n186            	21.8196     	0.116034    	P-Res-5         	;
 n187            	19.0349     	0.021423    	P-Res-9         	;
 n188            	18.8768     	0.000374    	P-Res-24        	;PRESSURE SENSOR
 n189            	18.6826     	0.124962    	P-Res-20        	;
 n190            	19.6529     	0.057790    	P-Res-44        	;
 n191            	27.4799     	0.334774    	P-Res-18        	;
 n192            	22.2060     	0.256246    	P-Res-20        	;
 n193            	19.7041     	0.026188    	P-Res-24        	;
 n194            	19.7601     	0.021108    	P-Res-48        	;
 n195            	16.8285     	0.097046    	P-Res-28        	;
 n196            	19.8226     	0.079407    	P-Res-40        	;
 n197            	16.5799     	0.000000    	P-Residential   	;
 n198            	22.8492     	0.000000    	P-Residential   	;
 n199            	16.5475     	0.152673    	P-Res-12        	;
 n200            	18.2407     	0.132041    	P-Res-5         	;
 n201            	19.1060     	0.064126    	P-Res-19        	;
 n202            	17.9436     	0.026763    	P-Res-29        	;
 n203            	22.0332     	0.195975    	P-Res-35        	;
 n204            	16.4360     	0.069546    	P-Res-9         	;
 n205            	6.9791      	0.000000    	P-Residential   	;
 n206            	7.9123      	0.000000    	P-Residential   	;
 n207            	2.0579      	0.000000    	P-Residential   	;
 n208            	5.9061      	0.000000    	P-Residential   	;
 n209            	4.6117      	0.000000    	P-Residential   	;
 n210            	2.7477      	0.000000    	P-Residential   	;
 n211            	4.8451      	0.000000    	P-Residential   	;
 n212            	2.3488      	0.000000    	P-Residential   	;
 n213            	3.2427      	0.000000    	P-Residential   	;
 n214            	16.8316     	0.009484    	P-Res-14        	;
 n215            	2.0066      	0.000000    	P-Residential   	;PRESSURE SENSOR
 n216            	2.4091      	0.000000    	P-Residential   	;
 n217            	1.8712      	0.000000    	P-Residential   	;
 n218            	29.6006     	0.136913    	P-Res-41        	;
 n219            	28.4518     	0.114097    	P-Res-5         	;
 n220            	30.7523     	0.178549    	P-Res-34        	;
 n221            	28.2232     	0.089179    	P-Res-24        	;
 n222            	28.0585     	0.008206    	P-Res-45        	;
 n223            	28.5629     	0.042144    	P-Res-9         	;
 n224            	26.9114     	0.118311    	P-Res-48        	;
 n225            	25.5000     	0.189073    	P-Res-31        	;
 n226            	6.1130      	0.000000    	P-Residential   	;
 n227            	5.7901      	0.000000    	P-Residential   	;
 n228            	27.3852     	0.111290    	P-Res-13        	;
 n229            	21.5781     	0.190013    	P-Res-12        	;PRESSURE SENSOR
 n230            	28.3962     	0.038303    	P-Res-42        	;
 n231            	4.8639      	0.000000    	P-Residential   	;
 n232            	26.0377     	0.043172    	P-Res-44        	;
 n233            	4.4157      	0.000000    	P-Residential   	;
 n234            	5.1036      	0.091769    	P-Res-23        	;
 n235            	24.1047     	0.258921    	P-Res-5         	;
 n236            	3.0871      	0.000000    	P-Residential   	;
 n237            	4.0834      	0.119433    	P-Res-27        	;
 n238            	24.6076     	0.313795    	P-Res-9         	;
 n239            	22.9677     	0.227572    	P-Res-28        	;
 n240            	28.8065     	0.189315    	P-Res-29        	;
 n241            	22.1953     	0.193745    	P-Res-27        	;
 n242            	2.3582      	0.000000    	P-Residential   	;
 n243            	2.6564      	0.000000    	P-Residential   	;
 n244            	21.2523     	0.540944    	P-Res-17        	;
 n245            	28.6610     	0.098850    	P-Res-14        	;
 n246            	1.9044      	0.000000    	P-Residential   	;
 n247            	2.1170      	0.000000    	P-Residential   	;
 n248            	29.3100     	0.163572    	P-Res-29        	;
 n249            	28.5347     	0.044129    	P-Res-20        	;
 n250            	28.4140     	0.094789    	P-Res-41        	;
 n251            	21.3004     	0.177572    	P-Res-40        	;
 n252            	24.7044     	0.140477    	P-Res-31        	;
 n253            	2.2871      	0.205891    	P-Res-44        	;
 n254            	2.2175      	0.003263    	P-Res-9         	;
 n255            	20.9378     	0.000776    	P-Res-38        	;
 n256            	17.7770     	0.253649    	P-Res-11        	;
 n257            	28.3219     	0.049404    	P-Res-25        	;
 n258            	24.7483     	0.049022    	P-Res-13        	;
 n259            	24.6010     	0.000000    	P-Residential   	;
 n260            	17.7457     	0.115740    	P-Res-10        	;
 n261            	16.7006     	0.134764    	P-Res-37        	;
 n262            	24.2606     	0.205607    	P-Res-27        	;
 n263            	24.6696     	0.105303    	P-Res-11        	;
 n264            	20.6282     	0.000000    	P-Residential   	;
 n265            	28.4319     	0.032514    	P-Res-38        	;
 n266            	19.9680     	0.340322    	P-Res-18        	;
 n267            	23.3745     	0.127422    	P-Res-22        	;
 n268            	21.9354     	0.115729    	P-Res-18        	;
 n269            	26.1653     	0.101955    	P-Res-5         	;
 n270            	20.8216     	0.194999    	P-Res-31        	;
 n271            	34.0390     	0.133452    	P-Res-42        	;
 n272            	20.1368     	0.132843    	P-Res-38        	;
 n273            	24.5091     	0.252846    	P-Res-36        	;
 n274            	32.8648     	0.011704    	P-Res-38        	;
 n275            	29.2533     	0.087852    	P-Res-48        	;
 n276            	21.3002     	0.195454    	P-Res-43        	;
 n277            	22.4480     	0.017442    	P-Res-15        	;
 n278            	22.0132     	0.114215    	P-Res-15        	;
 n279            	21.7544     	0.083593    	P-Res-12        	;
 n280            	29.6042     	0.112456    	P-Res-27        	;
 n281            	31.2675     	0.126909    	P-Res-41        	;
 n282            	30.4949     	0.145401    	P-Res-48        	;
 n283            	27.4233     	0.133683    	P-Res-20        	;
 n284            	26.3666     	0.175492    	P-Res-34        	;
 n285            	20.4612     	0.199356    	P-Res-17        	;
 n286            	29.0388     	0.238663    	P-Res-28        	;
 n287            	33.0444     	0.000000    	P-Residential   	;
 n288            	21.6218     	0.013548    	P-Res-35        	;PRESSURE SENSOR
 n289            	27.4463     	0.046822    	P-Res-36        	;
 n290            	24.6247     	0.148782    	P-Res-47        	;
 n291            	32.4985     	0.158638    	P-Res-14        	;
 n292            	31.9495     	0.081865    	P-Res-40        	;
 n293            	26.5282     	0.181017    	P-Res-22        	;
 n294            	26.5192     	0.039474    	P-Res-42        	;
 n295            	30.8274     	0.131241    	P-Res-16        	;
 n296            	32.1966     	0.100318    	P-Res-49        	;PRESSURE SENSOR
 n297            	23.3934     	0.200736    	P-Res-26        	;
 n298            	34.8909     	0.000000    	P-Residential   	;
 n299            	26.7205     	0.197962    	P-Res-47        	;
 n300            	35.0000     	0.000000    	P-Residential   	;
 n301            	23.5200     	0.072325    	P-Res-37        	;
 n302            	23.3123     	0.173877    	P-Res-18        	;
 n303            	34.4994     	0.000000    	P-Residential   	;
 n304            	32.9780     	0.113536    	P-Res-25        	;
 n305            	25.4869     	0.231382    	P-Res-4         	;
 n306            	23.6839     	0.245065    	P-Res-34        	;
 n307            	31.4204     	0.153744    	P-Res-24        	;
 n308            	23.3861     	0.087233    	P-Res-21        	;
 n309            	23.1678     	0.258786    	P-Res-9         	;
 n310            	22.3600     	0.138666    	P-Res-22        	;
 n311            	29.5998     	0.018556    	P-Res-29        	;
 n312            	22.0779     	0.122343    	P-Res-25        	;
 n313            	21.7616     	0.164109    	P-Res-41        	;
 n314            	29.6902     	0.077422    	P-Res-29        	;
 n315            	22.7969     	0.128949    	P-Res-4         	;
 n316            	29.3551     	0.121393    	P-Res-38        	;
 n317            	22.2884     	0.082969    	P-Res-23        	;
 n318            	23.5639     	0.157310    	P-Res-39        	;
 n319            	30.4617     	0.056085    	P-Res-24        	;
 n320            	28.2142     	0.103572    	P-Res-22        	;
 n321            	21.8970     	0.101047    	P-Res-6         	;
 n322            	26.9371     	0.000000    	P-Residential   	;
 n323            	26.0702     	0.208743    	P-Res-29        	;
 n324            	24.9686     	0.013313    	P-Res-20        	;
 n325            	24.3047     	0.204190    	P-Res-50        	;
 n326            	23.6854     	0.201497    	P-Res-32        	;
 n327            	22.2849     	0.233796    	P-Res-14        	;
 n328            	22.1954     	0.050812    	P-Res-50        	;
 n329            	24.3743     	0.007530    	P-Res-40        	;
 n330            	22.0274     	0.081163    	P-Res-16        	;
 n331            	22.9257     	0.032634    	P-Res-19        	;
 n332            	18.0000     	0.005394    	P-Res-46        	;PRESSURE SENSOR
 n333            	18.0000     	0.041316    	P-Res-23        	;
 n334            	18.0000     	0.071654    	P-Res-31        	;
 n335            	27.4500     	0.142441    	P-Res-36        	;
 n336            	26.0000     	0.330062    	P-Res-48        	;
 n337            	4.1000      	0.000000    	P-Residential   	;
 n338            	28.2000     	0.000000    	P-Residential   	;
 n339            	22.8000     	0.215495    	P-Res-21        	;
 n340            	30.1000     	0.479121    	P-Res-35        	;
 n341            	22.8000     	0.002269    	P-Res-10        	;
 n342            	27.3600     	0.000000    	P-Residential   	;PRESSURE SENSOR
 n343            	66.1200     	0.137129    	P-Res-39        	;AMR
 n344            	74.2800     	0.251005    	P-Res-7         	;AMR
 n345            	71.2300     	0.047587    	P-Res-38        	;AMR
 n346            	67.9300     	0.167265    	P-Res-6         	;AMR
 n347            	73.6617     	0.000000    	P-Residential   	;AMR
 n348            	74.1128     	0.029242    	P-Res-42        	;
 n349            	74.5640     	0.056646    	P-Res-7         	;AMR
 n350            	75.0152     	0.188525    	P-Res-12        	;AMR
 n351            	75.4663     	0.410137    	P-Res-48        	;AMR
 n352            	74.1103     	0.123854    	P-Res-10        	;AMR
 n353            	73.5455     	0.272920    	P-Res-33        	;AMR
 n354            	73.9127     	0.121719    	P-Res-42        	;AMR
 n355            	66.4555     	0.400157    	P-Res-16        	;AMR
 n356            	67.3414     	0.126399    	P-Res-50        	;AMR
 n357            	69.7450     	0.106454    	P-Res-44        	;AMR
 n358            	75.9841     	0.525476    	P-Res-9         	;AMR
 n359            	76.0507     	0.414467    	P-Res-18        	;
 n360            	64.9738     	0.255969    	P-Res-13        	;AMR
 n361            	65.4644     	0.121770    	P-Res-27        	;AMR
 n362            	74.0188     	0.006304    	P-Res-47        	;AMR
 n363            	73.6907     	0.148637    	P-Res-30        	;
 n364            	63.4409     	0.090973    	P-Res-34        	;AMR
 n365            	63.8231     	0.118129    	P-Res-1         	;AMR
 n366            	61.8702     	0.167437    	P-Res-17        	;AMR
 n367            	61.7504     	0.045157    	P-Res-37        	;AMR
 n368            	71.0896     	0.110145    	P-Res-39        	;AMR
 n369            	60.5924     	0.188557    	P-Res-2         	;AMR
 n370            	60.5913     	0.038796    	P-Res-3         	;AMR
 n371            	73.8213     	0.074508    	P-Res-14        	;AMR
 n372            	65.8656     	0.037437    	P-Res-35        	;AMR
 n373            	59.6553     	0.028953    	P-Res-24        	;AMR
 n374            	74.9737     	0.111586    	P-Res-25        	;AMR
 n375            	73.8301     	0.062449    	P-Res-1         	;AMR
 n376            	72.6865     	0.124394    	P-Res-36        	;AMR
 n377            	62.9179     	0.000000    	P-Residential   	;AMR
 n378            	68.9578     	0.012810    	P-Res-17        	;AMR
 n379            	70.0939     	0.093268    	P-Res-24        	;AMR
 n380            	61.2341     	0.153951    	P-Res-18        	;
 n381            	74.0464     	0.217637    	P-Res-3         	;AMR
 n382            	72.7629     	0.150652    	P-Res-8         	;AMR
 n383            	71.4794     	0.083314    	P-Res-37        	;AMR
 n384            	69.5445     	0.230089    	P-Res-31        	;AMR
 n385            	66.8891     	0.047992    	P-Res-6         	;AMR
 n386            	59.3943     	0.266722    	P-Res-48        	;AMR
 n387            	64.9448     	0.159183    	P-Res-2         	;AMR
 n388            	63.7718     	0.293851    	P-Res-34        	;AMR
 n389            	67.0238     	0.166415    	P-Res-20        	;AMR
 n390            	38.1640     	0.120148    	P-Res-29        	;
 n391            	37.6252     	0.112196    	P-Res-8         	;
 n392            	37.0865     	0.072631    	P-Res-7         	;
 n393            	38.8775     	0.067959    	P-Res-49        	;
 n394            	39.0521     	0.080821    	P-Res-12        	;
 n395            	39.2268     	0.089098    	P-Res-50        	;
 n396            	39.4015     	0.046073    	P-Res-45        	;
 n397            	39.5761     	0.144738    	P-Res-9         	;
 n398            	39.7508     	0.171016    	P-Res-28        	;
 n399            	39.9254     	0.002713    	P-Res-49        	;
 n400            	40.2570     	0.119253    	P-Res-24        	;
 n401            	40.4005     	0.283264    	P-Res-3         	;
 n402            	41.2645     	0.301643    	P-Res-19        	;
 n403            	42.4154     	0.308820    	P-Res-23        	;
 n404            	43.5664     	0.199072    	P-Res-28        	;
 n405            	34.7226     	0.160621    	P-Res-43        	;
 n406            	29.9762     	0.132536    	P-Res-7         	;
 n407            	31.6562     	0.173707    	P-Res-41        	;
 n408            	36.3159     	0.307006    	P-Res-25        	;
 n409            	42.1242     	0.044576    	P-Res-4         	;
 n410            	42.8344     	0.065622    	P-Res-24        	;PRESSURE SENSOR
 n411            	41.9643     	0.254343    	P-Res-38        	;
 n412            	32.6351     	0.252894    	P-Res-37        	;
 n413            	32.5684     	0.055188    	P-Res-29        	;
 n414            	34.4274     	0.173963    	P-Res-47        	;
 n415            	28.5315     	0.428692    	P-Res-2         	;PRESSURE SENSOR
 n416            	40.7274     	0.065811    	P-Res-41        	;
 n417            	40.9109     	0.136250    	P-Res-24        	;
 n418            	35.4624     	0.019533    	P-Res-36        	;
 n419            	34.9649     	0.029224    	P-Res-2         	;
 n420            	37.4540     	0.120628    	P-Res-5         	;
 n421            	37.9009     	0.062235    	P-Res-33        	;
 n422            	38.3478     	0.142353    	P-Res-31        	;
 n423            	38.7946     	0.380088    	P-Res-33        	;
 n424            	39.2415     	0.055367    	P-Res-4         	;
 n425            	34.3122     	0.130665    	P-Res-28        	;
 n426            	33.7011     	0.105634    	P-Res-17        	;
 n427            	36.5315     	0.098284    	P-Res-31        	;
 n428            	36.8386     	0.085857    	P-Res-24        	;
 n429            	37.1457     	0.003091    	P-Res-39        	;PRESSURE SENSOR
 n430            	37.4527     	0.134960    	P-Res-18        	;
 n431            	37.7598     	0.017490    	P-Res-39        	;
 n432            	38.0669     	0.130982    	P-Res-31        	;
 n433            	38.3740     	0.282431    	P-Res-43        	;
 n434            	40.5972     	0.339902    	P-Res-7         	;
 n435            	28.8164     	0.213439    	P-Res-24        	;
 n436            	34.2205     	0.082912    	P-Res-19        	;
 n437            	32.5424     	0.041779    	P-Res-4         	;
 n438            	39.8942     	0.129739    	P-Res-29        	;
 n439            	30.7936     	0.136735    	P-Res-49        	;
 n440            	34.2919     	0.051899    	P-Res-31        	;
 n441            	34.6102     	0.123967    	P-Res-9         	;
 n442            	34.9284     	0.000000    	P-Residential   	;
 n443            	29.0953     	0.100177    	P-Res-40        	;
 n444            	28.9522     	0.147276    	P-Res-49        	;
 n445            	28.2603     	0.078143    	P-Res-3         	;
 n446            	31.2180     	0.210774    	P-Res-20        	;
 n447            	31.4091     	0.197439    	P-Res-22        	;
 n448            	31.6002     	0.060814    	P-Res-49        	;
 n449            	39.1847     	0.158021    	P-Res-15        	;
 n450            	35.9868     	0.130649    	P-Res-22        	;
 n451            	36.1911     	0.264736    	P-Res-40        	;
 n452            	29.8032     	0.116647    	P-Res-23        	;
 n453            	30.7973     	0.273114    	P-Res-29        	;
 n454            	34.0772     	0.341512    	P-Res-1         	;
 n455            	32.9079     	0.153442    	P-Res-32        	;
 n456            	31.7385     	0.150242    	P-Res-45        	;
 n457            	30.5692     	0.241666    	P-Res-34        	;